LAMMPS (28 Mar 2023 - Development)
units real
atom_style full

dimension 3
boundary p p p

bond_style hybrid harmonic
angle_style hybrid harmonic
dihedral_style hybrid multi/harmonic
special_bonds lj 0.0 0.0 0.5 coul 0.0 0.0 0.8333

read_data ../../../ethanol.lmp
Reading data file ...
  triclinic box = (-0.85 -0.78 -0.53) to (33.2176 33.2876 33.5376) with tilt (0 0 0)
  reading atoms ...
  3873 atoms
  scanning bonds ...
  scanning angles ...
  scanning dihedrals ...
  reading bonds ...
  2584 bonds
  reading angles ...
  1301 angles
  reading dihedrals ...
  16 dihedrals
Finding 1-2 1-3 1-4 neighbors ...
     4 = max # of 1-2 neighbors
     4 = max # of 1-3 neighbors
     7 = max # of 1-4 neighbors
     8 = max # of special neighbors

pair_style hybrid/overlay lj/cut 10.0 lj/cut/soft 1.0 0.5 10.0 coul/long 10.0 coul/cut/soft 1.0 0.0 10.0
pair_modify tail yes shift no

kspace_style pppm 1e-4

# Interactions of ethanol with ethanol

pair_coeff 1 1 lj/cut/soft 0.109400 3.399670 1.0
pair_coeff 1 2 lj/cut/soft 0.109400 3.399670 1.0
pair_coeff 1 3 lj/cut/soft 0.151720 3.233070 1.0
pair_coeff 1 4 lj/cut/soft 0.041440 3.024600 1.0
pair_coeff 1 5 lj/cut/soft 0.041440 2.935510 1.0
pair_coeff 1 6 lj/cut/soft 0.000000 2.199840 1.0
pair_coeff 2 2 lj/cut/soft 0.109400 3.399670 1.0
pair_coeff 2 3 lj/cut/soft 0.151720 3.233070 1.0
pair_coeff 2 4 lj/cut/soft 0.041440 3.024600 1.0
pair_coeff 2 5 lj/cut/soft 0.041440 2.935510 1.0
pair_coeff 2 6 lj/cut/soft 0.000000 2.199840 1.0
pair_coeff 3 3 lj/cut/soft 0.210400 3.066470 1.0
pair_coeff 3 4 lj/cut/soft 0.057470 2.858000 1.0
pair_coeff 3 5 lj/cut/soft 0.057470 2.768910 1.0
pair_coeff 3 6 lj/cut/soft 0.000000 2.033230 1.0
pair_coeff 4 4 lj/cut/soft 0.015700 2.649530 1.0
pair_coeff 4 5 lj/cut/soft 0.015700 2.560440 1.0
pair_coeff 4 6 lj/cut/soft 0.000000 1.824760 1.0
pair_coeff 5 5 lj/cut/soft 0.015700 2.471350 1.0
pair_coeff 5 6 lj/cut/soft 0.000000 1.735680 1.0
pair_coeff 6 6 lj/cut/soft 0.000000 1.000000 1.0

# Interactions of TIP3P water with TIP3P water

pair_coeff 7 7 lj/cut 0.152100 3.150700
pair_coeff 7 8 lj/cut 0.000000 2.075350
pair_coeff 8 8 lj/cut 0.000000 1.000000

# Cross interactions of ethanol and TIP3P water

pair_coeff 1 7 lj/cut/soft 0.129000 3.275190 0.237
pair_coeff 1 8 lj/cut/soft 0.000000 2.199840 0.237
pair_coeff 2 7 lj/cut/soft 0.129000 3.275190 0.237
pair_coeff 2 8 lj/cut/soft 0.000000 2.199840 0.237
pair_coeff 3 7 lj/cut/soft 0.178890 3.108580 0.237
pair_coeff 3 8 lj/cut/soft 0.000000 2.033230 0.237
pair_coeff 4 7 lj/cut/soft 0.048870 2.900110 0.237
pair_coeff 4 8 lj/cut/soft 0.000000 1.824760 0.237
pair_coeff 5 7 lj/cut/soft 0.048870 2.811020 0.237
pair_coeff 5 8 lj/cut/soft 0.000000 1.735680 0.237
pair_coeff 6 7 lj/cut/soft 0.000000 2.075350 0.237
pair_coeff 6 8 lj/cut/soft 0.000000 1.000000 0.237

pair_coeff  * * coul/long

# Prevent intramolecular charge interaction to be scaled

pair_coeff  1*6 1*6  coul/cut/soft 9.999999999999997e+17

# Constrain all bonds with hydrogens and water completly (bonds and angle)

fix settle all shake 0.0001 20 0 b 2 3 4 6 7 8 9 t 7 8 a 14
Finding SHAKE clusters ...
       1 = # of size 2 clusters
       1 = # of size 3 clusters
       1 = # of size 4 clusters
    1288 = # of frozen angles
  find clusters CPU = 0.004 seconds

variable qi equal 1e-09

set type 1 charge $(-0.0968*v_qi)
set type 1 charge -9.6800000000000004354e-11
Setting atom values ...
  1 settings made for charge
set type 2 charge $(0.1297*v_qi)
set type 2 charge 1.2970000000000002774e-10
Setting atom values ...
  1 settings made for charge
set type 3 charge $(-0.5994*v_qi)
set type 3 charge -5.9940000000000012216e-10
Setting atom values ...
  1 settings made for charge
set type 4 charge $(0.0448*v_qi)
set type 4 charge 4.4800000000000002976e-11
Setting atom values ...
  3 settings made for charge
set type 5 charge $(0.0171*v_qi)
set type 5 charge 1.710000000000000105e-11
Setting atom values ...
  2 settings made for charge
set type 6 charge $(0.3979*v_qi)
set type 6 charge 3.9789999999999999081e-10
Setting atom values ...
  1 settings made for charge

# ============= RUN NPT SIMULATION =============

timestep        1

# ============= GENERATE VELOCITIES =============

velocity        all create 298.15 12345 rot yes dist gaussian

# ============= SET INTEGRATION SETTINGS =============

fix             int_npt all npt temp 298.15 298.15 100.0 iso 1 1 1000.0

thermo          10000

run             1000000
PPPM initialization ...
  G vector (1/distance) = 0.27443427
  grid = 20 20 20
  stencil order = 5
  estimated absolute RMS force accuracy = 0.01728536
  estimated relative force accuracy = 5.2054348e-05
  3d grid and FFT values/proc = 2601 300
Generated 0 of 28 mixed pair_coeff terms from geometric mixing rule
Step          Temp          E_pair         E_mol          TotEng         Press          Volume
0   298.15        -6434.6814      1.0594828     -4138.9249      41784.458      39538.903
Averages over the last 51 of 101 rows, steps 500000 to 1000000:
Temp E_pair E_mol TotEng Press Volume
297.93 -12320.5 3.99796 -10023.5 30.029 39113.2
Loop time of 2560.23 on 28 procs for 1000000 steps with 3873 atoms

write_restart   equil.restart
System init for write_restart ...
PPPM initialization ...
  G vector (1/distance) = 0.26589794
  grid = 18 18 18
  stencil order = 5
  estimated absolute RMS force accuracy = 0.027538703
  estimated relative force accuracy = 8.2931986e-05
  3d grid and FFT values/proc = 2304 270
Generated 0 of 28 mixed pair_coeff terms from geometric mixing rule

reset_timestep  0

# ============= SET TI SETTINGS =============

variable lambda equal 0.237
variable dlambda equal 0.0001

compute FEP all fep 298.15   pair lj/cut/soft lambda 1*6 7*8 v_dlambda   tail yes   volume yes

# ============= SET SAMPLING SETTINGS =============

thermo_style custom step etotal ke pe evdwl ecoul elong temp press vol v_lambda
thermo       100000

fix FEP all ave/time 10 100 1000 c_FEP[*] file fep_lj.fep

# ============= RUN =============

run 500000
PPPM initialization ...
  G vector (1/distance) = 0.26589794
  grid = 18 18 18
  stencil order = 5
  estimated absolute RMS force accuracy = 0.027538703
  estimated relative force accuracy = 8.2931986e-05
  3d grid and FFT values/proc = 2304 270
Generated 0 of 28 mixed pair_coeff terms from geometric mixing rule
FEP settings ...
  temperature = 298.150000
  tail yes
  pair lj/cut/soft lambda 1-6 7-8
Step         TotEng         KinEng         PotEng         E_vdwl         E_coul         E_long          Temp          Press          Volume        v_lambda
0  -10051.48       2310.6669     -12362.147      1787.2893      52739.806     -66895.821      300.22496     -449.15643      39192.561      0.237
Loop time of 1515.12 on 28 procs for 500000 steps with 3873 atoms
